<?xml version="1.0" encoding="UTF-8"?>

<!-- generated on 2023-02-08 17:14:51 by Eclipse SUMO netedit Version 1.15.0
<configuration xmlns:xsi="http://www.w3.org/2001/XMLSchema-instance" xsi:noNamespaceSchemaLocation="http://sumo.dlr.de/xsd/netconvertConfiguration.xsd">

    <input>
        <sumo-net-file value="C:\Users\mrosa\OneDrive - UNAM\Documentos\PUEC\Secretaria Tecnica\Investigacion\Movilidad y SUMO\Proyecto estaciones o no estaciones\programa\paradasestaciones\version0.8\data\paradas.net.xml"/>
    </input>

    <output>
        <output-file value="C:\Users\mrosa\OneDrive - UNAM\Documentos\PUEC\Secretaria Tecnica\Investigacion\Movilidad y SUMO\Proyecto estaciones o no estaciones\programa\paradasestaciones\version0.8\data\paradas.net.xml"/>
    </output>

    <processing>
        <geometry.min-radius.fix.railways value="false"/>
        <geometry.max-grade.fix value="false"/>
        <offset.disable-normalization value="true"/>
        <lefthand value="0"/>
    </processing>

    <junctions>
        <no-internal-links value="false"/>
        <no-turnarounds value="true"/>
        <junctions.corner-detail value="5"/>
        <junctions.limit-turn-speed value="5.50"/>
        <rectangular-lane-cut value="0"/>
    </junctions>

    <pedestrian>
        <walkingareas value="0"/>
    </pedestrian>

</configuration>
-->

<net version="1.9" junctionCornerDetail="5" limitTurnSpeed="5.50" xmlns:xsi="http://www.w3.org/2001/XMLSchema-instance" xsi:noNamespaceSchemaLocation="http://sumo.dlr.de/xsd/net_file.xsd">

    <location netOffset="0.00,0.00" convBoundary="0.00,-100.00,1000.00,100.00" origBoundary="-10000000000.00,-10000000000.00,10000000000.00,10000000000.00" projParameter="!"/>

    <edge id=":J0_0" function="internal">
        <lane id=":J0_0_0" index="0" disallow="pedestrian" speed="9.32" length="15.61" shape="7.20,54.80 3.35,53.85 0.60,51.00 -1.05,46.25 -1.27,43.60"/>
    </edge>
    <edge id=":J0_3" function="internal">
        <lane id=":J0_3_0" index="0" disallow="pedestrian" speed="9.32" length="4.01" shape="-1.27,43.60 -1.60,39.60"/>
    </edge>
    <edge id=":J0_1" function="internal">
        <lane id=":J0_1_0" index="0" disallow="pedestrian" speed="6.51" length="4.75" shape="1.60,39.60 1.95,42.05 3.00,43.80 3.20,43.92"/>
        <lane id=":J0_1_1" index="1" disallow="pedestrian" speed="7.33" length="7.08" shape="1.60,39.60 1.95,43.45 3.00,46.20 3.20,46.39"/>
    </edge>
    <edge id=":J0_4" function="internal">
        <lane id=":J0_4_0" index="0" disallow="pedestrian" speed="6.51" length="4.28" shape="3.20,43.92 4.75,44.85 7.20,45.20"/>
    </edge>
    <edge id=":J0_5" function="internal">
        <lane id=":J0_5_0" index="0" disallow="pedestrian" speed="7.33" length="4.64" shape="3.20,46.39 4.75,47.85 7.20,48.40"/>
    </edge>
    <edge id=":J0_c0" function="crossing" crossingEdges="E0 -E00">
        <lane id=":J0_c0_0" index="0" allow="pedestrian" speed="1.00" length="12.80" width="4.00" shape="5.20,43.60 5.20,56.40"/>
    </edge>
    <edge id=":J0_c1" function="crossing" crossingEdges="-E3 E3">
        <lane id=":J0_c1_0" index="0" allow="pedestrian" speed="1.00" length="6.40" width="4.00" shape="-3.20,41.60 3.20,41.60"/>
    </edge>
    <edge id=":J0_w0" function="walkingarea">
        <lane id=":J0_w0_0" index="0" allow="pedestrian" speed="1.00" length="13.47" width="4.00" shape="-3.20,39.60 -5.20,39.60 -4.98,44.46 -4.21,48.92 -2.75,52.75 -0.46,55.75 2.81,57.70 7.20,58.40 7.20,56.40 4.02,55.93 1.42,54.53 -0.60,52.20 -2.04,48.93 -2.91,44.73"/>
    </edge>
    <edge id=":J0_w1" function="walkingarea">
        <lane id=":J0_w1_0" index="0" allow="pedestrian" speed="1.00" length="3.30" width="4.00" shape="7.20,43.60 7.20,41.60 5.20,39.60 3.20,39.60 3.31,40.82 3.64,41.82 4.20,42.60 4.98,43.16 5.98,43.49"/>
    </edge>
    <edge id=":J1_0" function="internal">
        <lane id=":J1_0_0" index="0" disallow="pedestrian" speed="9.32" length="15.45" shape="1001.60,39.60 1001.05,46.25 999.40,51.00 996.80,53.69"/>
        <lane id=":J1_0_1" index="1" disallow="pedestrian" speed="8.67" length="12.74" shape="1001.60,39.60 1001.05,44.85 999.40,48.60 996.80,50.73"/>
    </edge>
    <edge id=":J1_3" function="internal">
        <lane id=":J1_3_0" index="0" disallow="pedestrian" speed="9.32" length="4.18" shape="996.80,53.69 996.65,53.85 992.80,54.80"/>
    </edge>
    <edge id=":J1_4" function="internal">
        <lane id=":J1_4_0" index="0" disallow="pedestrian" speed="8.67" length="4.12" shape="996.80,50.73 996.65,50.85 992.80,51.60"/>
    </edge>
    <edge id=":J1_2" function="internal">
        <lane id=":J1_2_0" index="0" disallow="pedestrian" speed="6.51" length="4.75" shape="992.80,45.20 995.25,44.85 997.00,43.80 997.12,43.60"/>
    </edge>
    <edge id=":J1_5" function="internal">
        <lane id=":J1_5_0" index="0" disallow="pedestrian" speed="6.51" length="4.28" shape="997.12,43.60 998.05,42.05 998.40,39.60"/>
    </edge>
    <edge id=":J1_c0" function="crossing" crossingEdges="E1 -E1">
        <lane id=":J1_c0_0" index="0" allow="pedestrian" speed="1.00" length="6.40" width="4.00" shape="996.80,41.60 1003.20,41.60"/>
    </edge>
    <edge id=":J1_c1" function="crossing" crossingEdges="-E0 E00.151">
        <lane id=":J1_c1_0" index="0" allow="pedestrian" speed="1.00" length="12.80" width="4.00" shape="994.80,56.40 994.80,43.60"/>
    </edge>
    <edge id=":J1_w0" function="walkingarea">
        <lane id=":J1_w0_0" index="0" allow="pedestrian" speed="1.00" length="13.47" width="4.00" shape="992.80,56.40 992.80,58.40 997.19,57.70 1000.46,55.75 1002.75,52.75 1004.21,48.92 1004.98,44.46 1005.20,39.60 1003.20,39.60 1002.91,44.73 1002.04,48.93 1000.60,52.20 998.58,54.53 995.98,55.93"/>
    </edge>
    <edge id=":J1_w1" function="walkingarea">
        <lane id=":J1_w1_0" index="0" allow="pedestrian" speed="1.00" length="3.30" width="4.00" shape="996.80,39.60 994.80,39.60 992.80,41.60 992.80,43.60 994.02,43.49 995.02,43.16 995.80,42.60 996.36,41.82 996.69,40.82"/>
    </edge>
    <edge id=":J10_0" function="internal">
        <lane id=":J10_0_0" index="0" disallow="pedestrian" speed="6.51" length="4.75" shape="698.40,60.40 698.05,57.95 697.00,56.20 696.80,56.08"/>
    </edge>
    <edge id=":J10_1" function="internal">
        <lane id=":J10_1_0" index="0" disallow="pedestrian" speed="13.89" length="20.80" shape="698.40,60.40 698.40,39.60"/>
    </edge>
    <edge id=":J10_2" function="internal">
        <lane id=":J10_2_0" index="0" disallow="pedestrian" speed="8.67" length="5.56" shape="698.40,60.40 698.95,55.15 699.06,54.89"/>
    </edge>
    <edge id=":J10_14" function="internal">
        <lane id=":J10_14_0" index="0" disallow="pedestrian" speed="6.51" length="4.28" shape="696.80,56.08 695.25,55.15 692.80,54.80"/>
    </edge>
    <edge id=":J10_15" function="internal">
        <lane id=":J10_15_0" index="0" disallow="pedestrian" speed="8.67" length="11.29" shape="699.06,54.89 700.60,51.40 703.35,49.15 707.20,48.40"/>
    </edge>
    <edge id=":J10_3" function="internal">
        <lane id=":J10_3_0" index="0" disallow="pedestrian" speed="6.51" length="4.75" shape="707.20,54.80 704.75,55.15 703.00,56.20 702.88,56.40"/>
    </edge>
    <edge id=":J10_4" function="internal">
        <lane id=":J10_4_0" index="0" disallow="pedestrian" speed="13.89" length="14.40" shape="707.20,54.80 692.80,54.80"/>
        <lane id=":J10_4_1" index="1" disallow="pedestrian" speed="13.89" length="14.40" shape="707.20,51.60 692.80,51.60"/>
    </edge>
    <edge id=":J10_6" function="internal">
        <lane id=":J10_6_0" index="0" disallow="pedestrian" speed="8.67" length="3.71" shape="707.20,51.60 703.56,50.89"/>
    </edge>
    <edge id=":J10_16" function="internal">
        <lane id=":J10_16_0" index="0" disallow="pedestrian" speed="6.51" length="4.28" shape="702.88,56.40 701.95,57.95 701.60,60.40"/>
    </edge>
    <edge id=":J10_17" function="internal">
        <lane id=":J10_17_0" index="0" disallow="pedestrian" speed="8.67" length="13.14" shape="703.56,50.89 703.35,50.85 700.60,48.60 698.95,44.85 698.40,39.60"/>
    </edge>
    <edge id=":J10_7" function="internal">
        <lane id=":J10_7_0" index="0" disallow="pedestrian" speed="6.51" length="4.75" shape="701.60,39.60 701.95,42.05 703.00,43.80 703.20,43.92"/>
    </edge>
    <edge id=":J10_8" function="internal">
        <lane id=":J10_8_0" index="0" disallow="pedestrian" speed="13.89" length="20.80" shape="701.60,39.60 701.60,60.40"/>
    </edge>
    <edge id=":J10_9" function="internal">
        <lane id=":J10_9_0" index="0" disallow="pedestrian" speed="8.67" length="5.56" shape="701.60,39.60 701.05,44.85 700.94,45.11"/>
    </edge>
    <edge id=":J10_18" function="internal">
        <lane id=":J10_18_0" index="0" disallow="pedestrian" speed="6.51" length="4.28" shape="703.20,43.92 704.75,44.85 707.20,45.20"/>
    </edge>
    <edge id=":J10_19" function="internal">
        <lane id=":J10_19_0" index="0" disallow="pedestrian" speed="8.67" length="11.29" shape="700.94,45.11 699.40,48.60 696.65,50.85 692.80,51.60"/>
    </edge>
    <edge id=":J10_10" function="internal">
        <lane id=":J10_10_0" index="0" disallow="pedestrian" speed="6.51" length="4.75" shape="692.80,45.20 695.25,44.85 697.00,43.80 697.12,43.60"/>
    </edge>
    <edge id=":J10_11" function="internal">
        <lane id=":J10_11_0" index="0" disallow="pedestrian" speed="13.89" length="14.40" shape="692.80,45.20 707.20,45.20"/>
        <lane id=":J10_11_1" index="1" disallow="pedestrian" speed="13.89" length="14.40" shape="692.80,48.40 707.20,48.40"/>
    </edge>
    <edge id=":J10_13" function="internal">
        <lane id=":J10_13_0" index="0" disallow="pedestrian" speed="8.67" length="3.71" shape="692.80,48.40 696.44,49.11"/>
    </edge>
    <edge id=":J10_20" function="internal">
        <lane id=":J10_20_0" index="0" disallow="pedestrian" speed="6.51" length="4.28" shape="697.12,43.60 698.05,42.05 698.40,39.60"/>
    </edge>
    <edge id=":J10_21" function="internal">
        <lane id=":J10_21_0" index="0" disallow="pedestrian" speed="8.67" length="13.14" shape="696.44,49.11 696.65,49.15 699.40,51.40 701.05,55.15 701.60,60.40"/>
    </edge>
    <edge id=":J10_c0" function="crossing" crossingEdges="-E24 E24">
        <lane id=":J10_c0_0" index="0" allow="pedestrian" speed="1.00" length="6.40" width="4.00" shape="703.20,58.40 696.80,58.40"/>
    </edge>
    <edge id=":J10_c1" function="crossing" crossingEdges="E34 -E340">
        <lane id=":J10_c1_0" index="0" allow="pedestrian" speed="1.00" length="12.80" width="4.00" shape="705.20,43.60 705.20,56.40"/>
    </edge>
    <edge id=":J10_c2" function="crossing" crossingEdges="E25 -E25">
        <lane id=":J10_c2_0" index="0" allow="pedestrian" speed="1.00" length="6.40" width="4.00" shape="696.80,41.60 703.20,41.60"/>
    </edge>
    <edge id=":J10_c3" function="crossing" crossingEdges="-E0.265 E0.311">
        <lane id=":J10_c3_0" index="0" allow="pedestrian" speed="1.00" length="12.80" width="4.00" shape="694.80,56.40 694.80,43.60"/>
    </edge>
    <edge id=":J10_w0" function="walkingarea">
        <lane id=":J10_w0_0" index="0" allow="pedestrian" speed="1.00" length="3.30" width="4.00" shape="692.80,56.40 692.80,58.40 694.80,60.40 696.80,60.40 696.69,59.18 696.36,58.18 695.80,57.40 695.02,56.84 694.02,56.51"/>
    </edge>
    <edge id=":J10_w1" function="walkingarea">
        <lane id=":J10_w1_0" index="0" allow="pedestrian" speed="1.00" length="3.30" width="4.00" shape="703.20,60.40 705.20,60.40 707.20,58.40 707.20,56.40 705.98,56.51 704.98,56.84 704.20,57.40 703.64,58.18 703.31,59.18"/>
    </edge>
    <edge id=":J10_w2" function="walkingarea">
        <lane id=":J10_w2_0" index="0" allow="pedestrian" speed="1.00" length="3.30" width="4.00" shape="707.20,43.60 707.20,41.60 705.20,39.60 703.20,39.60 703.31,40.82 703.64,41.82 704.20,42.60 704.98,43.16 705.98,43.49"/>
    </edge>
    <edge id=":J10_w3" function="walkingarea">
        <lane id=":J10_w3_0" index="0" allow="pedestrian" speed="1.00" length="3.30" width="4.00" shape="696.80,39.60 694.80,39.60 692.80,41.60 692.80,43.60 694.02,43.49 695.02,43.16 695.80,42.60 696.36,41.82 696.69,40.82"/>
    </edge>
    <edge id=":J12_0" function="internal">
        <lane id=":J12_0_0" index="0" disallow="pedestrian" speed="6.51" length="4.75" shape="898.40,60.40 898.05,57.95 897.00,56.20 896.80,56.08"/>
    </edge>
    <edge id=":J12_1" function="internal">
        <lane id=":J12_1_0" index="0" disallow="pedestrian" speed="13.89" length="20.80" shape="898.40,60.40 898.40,39.60"/>
    </edge>
    <edge id=":J12_2" function="internal">
        <lane id=":J12_2_0" index="0" disallow="pedestrian" speed="8.67" length="5.56" shape="898.40,60.40 898.95,55.15 899.06,54.89"/>
    </edge>
    <edge id=":J12_14" function="internal">
        <lane id=":J12_14_0" index="0" disallow="pedestrian" speed="6.51" length="4.28" shape="896.80,56.08 895.25,55.15 892.80,54.80"/>
    </edge>
    <edge id=":J12_15" function="internal">
        <lane id=":J12_15_0" index="0" disallow="pedestrian" speed="8.67" length="11.29" shape="899.06,54.89 900.60,51.40 903.35,49.15 907.20,48.40"/>
    </edge>
    <edge id=":J12_3" function="internal">
        <lane id=":J12_3_0" index="0" disallow="pedestrian" speed="6.51" length="4.75" shape="907.20,54.80 904.75,55.15 903.00,56.20 902.88,56.40"/>
    </edge>
    <edge id=":J12_4" function="internal">
        <lane id=":J12_4_0" index="0" disallow="pedestrian" speed="13.89" length="14.40" shape="907.20,54.80 892.80,54.80"/>
        <lane id=":J12_4_1" index="1" disallow="pedestrian" speed="13.89" length="14.40" shape="907.20,51.60 892.80,51.60"/>
    </edge>
    <edge id=":J12_6" function="internal">
        <lane id=":J12_6_0" index="0" disallow="pedestrian" speed="8.67" length="3.71" shape="907.20,51.60 903.56,50.89"/>
    </edge>
    <edge id=":J12_16" function="internal">
        <lane id=":J12_16_0" index="0" disallow="pedestrian" speed="6.51" length="4.28" shape="902.88,56.40 901.95,57.95 901.60,60.40"/>
    </edge>
    <edge id=":J12_17" function="internal">
        <lane id=":J12_17_0" index="0" disallow="pedestrian" speed="8.67" length="13.14" shape="903.56,50.89 903.35,50.85 900.60,48.60 898.95,44.85 898.40,39.60"/>
    </edge>
    <edge id=":J12_7" function="internal">
        <lane id=":J12_7_0" index="0" disallow="pedestrian" speed="6.51" length="4.75" shape="901.60,39.60 901.95,42.05 903.00,43.80 903.20,43.92"/>
    </edge>
    <edge id=":J12_8" function="internal">
        <lane id=":J12_8_0" index="0" disallow="pedestrian" speed="13.89" length="20.80" shape="901.60,39.60 901.60,60.40"/>
    </edge>
    <edge id=":J12_9" function="internal">
        <lane id=":J12_9_0" index="0" disallow="pedestrian" speed="8.67" length="5.56" shape="901.60,39.60 901.05,44.85 900.94,45.11"/>
    </edge>
    <edge id=":J12_18" function="internal">
        <lane id=":J12_18_0" index="0" disallow="pedestrian" speed="6.51" length="4.28" shape="903.20,43.92 904.75,44.85 907.20,45.20"/>
    </edge>
    <edge id=":J12_19" function="internal">
        <lane id=":J12_19_0" index="0" disallow="pedestrian" speed="8.67" length="11.29" shape="900.94,45.11 899.40,48.60 896.65,50.85 892.80,51.60"/>
    </edge>
    <edge id=":J12_10" function="internal">
        <lane id=":J12_10_0" index="0" disallow="pedestrian" speed="6.51" length="4.75" shape="892.80,45.20 895.25,44.85 897.00,43.80 897.12,43.60"/>
    </edge>
    <edge id=":J12_11" function="internal">
        <lane id=":J12_11_0" index="0" disallow="pedestrian" speed="13.89" length="14.40" shape="892.80,45.20 907.20,45.20"/>
        <lane id=":J12_11_1" index="1" disallow="pedestrian" speed="13.89" length="14.40" shape="892.80,48.40 907.20,48.40"/>
    </edge>
    <edge id=":J12_13" function="internal">
        <lane id=":J12_13_0" index="0" disallow="pedestrian" speed="8.67" length="3.71" shape="892.80,48.40 896.44,49.11"/>
    </edge>
    <edge id=":J12_20" function="internal">
        <lane id=":J12_20_0" index="0" disallow="pedestrian" speed="6.51" length="4.28" shape="897.12,43.60 898.05,42.05 898.40,39.60"/>
    </edge>
    <edge id=":J12_21" function="internal">
        <lane id=":J12_21_0" index="0" disallow="pedestrian" speed="8.67" length="13.14" shape="896.44,49.11 896.65,49.15 899.40,51.40 901.05,55.15 901.60,60.40"/>
    </edge>
    <edge id=":J12_c0" function="crossing" crossingEdges="-E30 E30">
        <lane id=":J12_c0_0" index="0" allow="pedestrian" speed="1.00" length="6.40" width="4.00" shape="903.20,58.40 896.80,58.40"/>
    </edge>
    <edge id=":J12_c1" function="crossing" crossingEdges="E00.151 -E0">
        <lane id=":J12_c1_0" index="0" allow="pedestrian" speed="1.00" length="12.80" width="4.00" shape="905.20,43.60 905.20,56.40"/>
    </edge>
    <edge id=":J12_c2" function="crossing" crossingEdges="E32 -E32">
        <lane id=":J12_c2_0" index="0" allow="pedestrian" speed="1.00" length="6.40" width="4.00" shape="896.80,41.60 903.20,41.60"/>
    </edge>
    <edge id=":J12_c3" function="crossing" crossingEdges="-E34 E34.81">
        <lane id=":J12_c3_0" index="0" allow="pedestrian" speed="1.00" length="12.80" width="4.00" shape="894.80,56.40 894.80,43.60"/>
    </edge>
    <edge id=":J12_w0" function="walkingarea">
        <lane id=":J12_w0_0" index="0" allow="pedestrian" speed="1.00" length="3.30" width="4.00" shape="892.80,56.40 892.80,58.40 894.80,60.40 896.80,60.40 896.69,59.18 896.36,58.18 895.80,57.40 895.02,56.84 894.02,56.51"/>
    </edge>
    <edge id=":J12_w1" function="walkingarea">
        <lane id=":J12_w1_0" index="0" allow="pedestrian" speed="1.00" length="3.30" width="4.00" shape="903.20,60.40 905.20,60.40 907.20,58.40 907.20,56.40 905.98,56.51 904.98,56.84 904.20,57.40 903.64,58.18 903.31,59.18"/>
    </edge>
    <edge id=":J12_w2" function="walkingarea">
        <lane id=":J12_w2_0" index="0" allow="pedestrian" speed="1.00" length="3.30" width="4.00" shape="907.20,43.60 907.20,41.60 905.20,39.60 903.20,39.60 903.31,40.82 903.64,41.82 904.20,42.60 904.98,43.16 905.98,43.49"/>
    </edge>
    <edge id=":J12_w3" function="walkingarea">
        <lane id=":J12_w3_0" index="0" allow="pedestrian" speed="1.00" length="3.30" width="4.00" shape="896.80,39.60 894.80,39.60 892.80,41.60 892.80,43.60 894.02,43.49 895.02,43.16 895.80,42.60 896.36,41.82 896.69,40.82"/>
    </edge>
    <edge id=":J13_0" function="internal">
        <lane id=":J13_0_0" index="0" disallow="pedestrian" speed="6.51" length="4.75" shape="98.40,-39.60 98.05,-42.05 97.00,-43.80 96.80,-43.92"/>
    </edge>
    <edge id=":J13_1" function="internal">
        <lane id=":J13_1_0" index="0" disallow="pedestrian" speed="13.89" length="20.80" shape="98.40,-39.60 98.40,-60.40"/>
    </edge>
    <edge id=":J13_2" function="internal">
        <lane id=":J13_2_0" index="0" disallow="pedestrian" speed="8.67" length="5.56" shape="98.40,-39.60 98.95,-44.85 99.06,-45.11"/>
    </edge>
    <edge id=":J13_14" function="internal">
        <lane id=":J13_14_0" index="0" disallow="pedestrian" speed="6.51" length="4.28" shape="96.80,-43.92 95.25,-44.85 92.80,-45.20"/>
    </edge>
    <edge id=":J13_15" function="internal">
        <lane id=":J13_15_0" index="0" disallow="pedestrian" speed="8.67" length="11.29" shape="99.06,-45.11 100.60,-48.60 103.35,-50.85 107.20,-51.60"/>
    </edge>
    <edge id=":J13_3" function="internal">
        <lane id=":J13_3_0" index="0" disallow="pedestrian" speed="6.51" length="4.75" shape="107.20,-45.20 104.75,-44.85 103.00,-43.80 102.88,-43.60"/>
    </edge>
    <edge id=":J13_4" function="internal">
        <lane id=":J13_4_0" index="0" disallow="pedestrian" speed="13.89" length="14.40" shape="107.20,-45.20 92.80,-45.20"/>
        <lane id=":J13_4_1" index="1" disallow="pedestrian" speed="13.89" length="14.40" shape="107.20,-48.40 92.80,-48.40"/>
    </edge>
    <edge id=":J13_6" function="internal">
        <lane id=":J13_6_0" index="0" disallow="pedestrian" speed="8.67" length="3.71" shape="107.20,-48.40 103.56,-49.11"/>
    </edge>
    <edge id=":J13_16" function="internal">
        <lane id=":J13_16_0" index="0" disallow="pedestrian" speed="6.51" length="4.28" shape="102.88,-43.60 101.95,-42.05 101.60,-39.60"/>
    </edge>
    <edge id=":J13_17" function="internal">
        <lane id=":J13_17_0" index="0" disallow="pedestrian" speed="8.67" length="13.14" shape="103.56,-49.11 103.35,-49.15 100.60,-51.40 98.95,-55.15 98.40,-60.40"/>
    </edge>
    <edge id=":J13_7" function="internal">
        <lane id=":J13_7_0" index="0" disallow="pedestrian" speed="6.51" length="4.75" shape="101.60,-60.40 101.95,-57.95 103.00,-56.20 103.20,-56.08"/>
    </edge>
    <edge id=":J13_8" function="internal">
        <lane id=":J13_8_0" index="0" disallow="pedestrian" speed="13.89" length="20.80" shape="101.60,-60.40 101.60,-39.60"/>
    </edge>
    <edge id=":J13_9" function="internal">
        <lane id=":J13_9_0" index="0" disallow="pedestrian" speed="8.67" length="5.56" shape="101.60,-60.40 101.05,-55.15 100.94,-54.89"/>
    </edge>
    <edge id=":J13_18" function="internal">
        <lane id=":J13_18_0" index="0" disallow="pedestrian" speed="6.51" length="4.28" shape="103.20,-56.08 104.75,-55.15 107.20,-54.80"/>
    </edge>
    <edge id=":J13_19" function="internal">
        <lane id=":J13_19_0" index="0" disallow="pedestrian" speed="8.67" length="11.29" shape="100.94,-54.89 99.40,-51.40 96.65,-49.15 92.80,-48.40"/>
    </edge>
    <edge id=":J13_10" function="internal">
        <lane id=":J13_10_0" index="0" disallow="pedestrian" speed="6.51" length="4.75" shape="92.80,-54.80 95.25,-55.15 97.00,-56.20 97.12,-56.40"/>
    </edge>
    <edge id=":J13_11" function="internal">
        <lane id=":J13_11_0" index="0" disallow="pedestrian" speed="13.89" length="14.40" shape="92.80,-54.80 107.20,-54.80"/>
        <lane id=":J13_11_1" index="1" disallow="pedestrian" speed="13.89" length="14.40" shape="92.80,-51.60 107.20,-51.60"/>
    </edge>
    <edge id=":J13_13" function="internal">
        <lane id=":J13_13_0" index="0" disallow="pedestrian" speed="8.67" length="3.71" shape="92.80,-51.60 96.44,-50.89"/>
    </edge>
    <edge id=":J13_20" function="internal">
        <lane id=":J13_20_0" index="0" disallow="pedestrian" speed="6.51" length="4.28" shape="97.12,-56.40 98.05,-57.95 98.40,-60.40"/>
    </edge>
    <edge id=":J13_21" function="internal">
        <lane id=":J13_21_0" index="0" disallow="pedestrian" speed="8.67" length="13.14" shape="96.44,-50.89 96.65,-50.85 99.40,-48.60 101.05,-44.85 101.60,-39.60"/>
    </edge>
    <edge id=":J13_c0" function="crossing" crossingEdges="-E5 E5">
        <lane id=":J13_c0_0" index="0" allow="pedestrian" speed="1.00" length="6.40" width="4.00" shape="103.20,-41.60 96.80,-41.60"/>
    </edge>
    <edge id=":J13_c1" function="crossing" crossingEdges="-E2.65 E2.65">
        <lane id=":J13_c1_0" index="0" allow="pedestrian" speed="1.00" length="12.80" width="4.00" shape="105.20,-56.40 105.20,-43.60"/>
    </edge>
    <edge id=":J13_c2" function="crossing" crossingEdges="E60 -E6">
        <lane id=":J13_c2_0" index="0" allow="pedestrian" speed="1.00" length="6.40" width="4.00" shape="96.80,-58.40 103.20,-58.40"/>
    </edge>
    <edge id=":J13_c3" function="crossing" crossingEdges="E20 -E2">
        <lane id=":J13_c3_0" index="0" allow="pedestrian" speed="1.00" length="12.80" width="4.00" shape="94.80,-43.60 94.80,-56.40"/>
    </edge>
    <edge id=":J13_w0" function="walkingarea">
        <lane id=":J13_w0_0" index="0" allow="pedestrian" speed="1.00" length="3.30" width="4.00" shape="92.80,-43.60 92.80,-41.60 94.80,-39.60 96.80,-39.60 96.69,-40.82 96.36,-41.82 95.80,-42.60 95.02,-43.16 94.02,-43.49"/>
    </edge>
    <edge id=":J13_w1" function="walkingarea">
        <lane id=":J13_w1_0" index="0" allow="pedestrian" speed="1.00" length="3.30" width="4.00" shape="103.20,-39.60 105.20,-39.60 107.20,-41.60 107.20,-43.60 105.98,-43.49 104.98,-43.16 104.20,-42.60 103.64,-41.82 103.31,-40.82"/>
    </edge>
    <edge id=":J13_w2" function="walkingarea">
        <lane id=":J13_w2_0" index="0" allow="pedestrian" speed="1.00" length="3.30" width="4.00" shape="107.20,-56.40 107.20,-58.40 105.20,-60.40 103.20,-60.40 103.31,-59.18 103.64,-58.18 104.20,-57.40 104.98,-56.84 105.98,-56.51"/>
    </edge>
    <edge id=":J13_w3" function="walkingarea">
        <lane id=":J13_w3_0" index="0" allow="pedestrian" speed="1.00" length="3.30" width="4.00" shape="96.80,-60.40 94.80,-60.40 92.80,-58.40 92.80,-56.40 94.02,-56.51 95.02,-56.84 95.80,-57.40 96.36,-58.18 96.69,-59.18"/>
    </edge>
    <edge id=":J14_0" function="internal">
        <lane id=":J14_0_0" index="0" disallow="pedestrian" speed="6.51" length="4.75" shape="198.40,-39.60 198.05,-42.05 197.00,-43.80 196.80,-43.92"/>
    </edge>
    <edge id=":J14_1" function="internal">
        <lane id=":J14_1_0" index="0" disallow="pedestrian" speed="13.89" length="20.80" shape="198.40,-39.60 198.40,-60.40"/>
    </edge>
    <edge id=":J14_2" function="internal">
        <lane id=":J14_2_0" index="0" disallow="pedestrian" speed="8.67" length="5.56" shape="198.40,-39.60 198.95,-44.85 199.06,-45.11"/>
    </edge>
    <edge id=":J14_14" function="internal">
        <lane id=":J14_14_0" index="0" disallow="pedestrian" speed="6.51" length="4.28" shape="196.80,-43.92 195.25,-44.85 192.80,-45.20"/>
    </edge>
    <edge id=":J14_15" function="internal">
        <lane id=":J14_15_0" index="0" disallow="pedestrian" speed="8.67" length="11.29" shape="199.06,-45.11 200.60,-48.60 203.35,-50.85 207.20,-51.60"/>
    </edge>
    <edge id=":J14_3" function="internal">
        <lane id=":J14_3_0" index="0" disallow="pedestrian" speed="6.51" length="4.75" shape="207.20,-45.20 204.75,-44.85 203.00,-43.80 202.88,-43.60"/>
    </edge>
    <edge id=":J14_4" function="internal">
        <lane id=":J14_4_0" index="0" disallow="pedestrian" speed="13.89" length="14.40" shape="207.20,-45.20 192.80,-45.20"/>
        <lane id=":J14_4_1" index="1" disallow="pedestrian" speed="13.89" length="14.40" shape="207.20,-48.40 192.80,-48.40"/>
    </edge>
    <edge id=":J14_6" function="internal">
        <lane id=":J14_6_0" index="0" disallow="pedestrian" speed="8.67" length="3.71" shape="207.20,-48.40 203.56,-49.11"/>
    </edge>
    <edge id=":J14_16" function="internal">
        <lane id=":J14_16_0" index="0" disallow="pedestrian" speed="6.51" length="4.28" shape="202.88,-43.60 201.95,-42.05 201.60,-39.60"/>
    </edge>
    <edge id=":J14_17" function="internal">
        <lane id=":J14_17_0" index="0" disallow="pedestrian" speed="8.67" length="13.14" shape="203.56,-49.11 203.35,-49.15 200.60,-51.40 198.95,-55.15 198.40,-60.40"/>
    </edge>
    <edge id=":J14_7" function="internal">
        <lane id=":J14_7_0" index="0" disallow="pedestrian" speed="6.51" length="4.75" shape="201.60,-60.40 201.95,-57.95 203.00,-56.20 203.20,-56.08"/>
    </edge>
    <edge id=":J14_8" function="internal">
        <lane id=":J14_8_0" index="0" disallow="pedestrian" speed="13.89" length="20.80" shape="201.60,-60.40 201.60,-39.60"/>
    </edge>
    <edge id=":J14_9" function="internal">
        <lane id=":J14_9_0" index="0" disallow="pedestrian" speed="8.67" length="5.56" shape="201.60,-60.40 201.05,-55.15 200.94,-54.89"/>
    </edge>
    <edge id=":J14_18" function="internal">
        <lane id=":J14_18_0" index="0" disallow="pedestrian" speed="6.51" length="4.28" shape="203.20,-56.08 204.75,-55.15 207.20,-54.80"/>
    </edge>
    <edge id=":J14_19" function="internal">
        <lane id=":J14_19_0" index="0" disallow="pedestrian" speed="8.67" length="11.29" shape="200.94,-54.89 199.40,-51.40 196.65,-49.15 192.80,-48.40"/>
    </edge>
    <edge id=":J14_10" function="internal">
        <lane id=":J14_10_0" index="0" disallow="pedestrian" speed="6.51" length="4.75" shape="192.80,-54.80 195.25,-55.15 197.00,-56.20 197.12,-56.40"/>
    </edge>
    <edge id=":J14_11" function="internal">
        <lane id=":J14_11_0" index="0" disallow="pedestrian" speed="13.89" length="14.40" shape="192.80,-54.80 207.20,-54.80"/>
        <lane id=":J14_11_1" index="1" disallow="pedestrian" speed="13.89" length="14.40" shape="192.80,-51.60 207.20,-51.60"/>
    </edge>
    <edge id=":J14_13" function="internal">
        <lane id=":J14_13_0" index="0" disallow="pedestrian" speed="8.67" length="3.71" shape="192.80,-51.60 196.44,-50.89"/>
    </edge>
    <edge id=":J14_20" function="internal">
        <lane id=":J14_20_0" index="0" disallow="pedestrian" speed="6.51" length="4.28" shape="197.12,-56.40 198.05,-57.95 198.40,-60.40"/>
    </edge>
    <edge id=":J14_21" function="internal">
        <lane id=":J14_21_0" index="0" disallow="pedestrian" speed="8.67" length="13.14" shape="196.44,-50.89 196.65,-50.85 199.40,-48.60 201.05,-44.85 201.60,-39.60"/>
    </edge>
    <edge id=":J14_c0" function="crossing" crossingEdges="E8 -E8">
        <lane id=":J14_c0_0" index="0" allow="pedestrian" speed="1.00" length="6.40" width="4.00" shape="203.20,-41.60 196.80,-41.60"/>
    </edge>
    <edge id=":J14_c1" function="crossing" crossingEdges="-E2.114 E2.515">
        <lane id=":J14_c1_0" index="0" allow="pedestrian" speed="1.00" length="12.80" width="4.00" shape="205.20,-56.40 205.20,-43.60"/>
    </edge>
    <edge id=":J14_c2" function="crossing" crossingEdges="E9 -E9">
        <lane id=":J14_c2_0" index="0" allow="pedestrian" speed="1.00" length="6.40" width="4.00" shape="196.80,-58.40 203.20,-58.40"/>
    </edge>
    <edge id=":J14_c3" function="crossing" crossingEdges="E2.65 -E2.65">