<?xml version="1.0" encoding="UTF-8"?>

<!-- generated on 2022-07-27 18:06:32 by Eclipse SUMO GUI Version 1.14.1
-->

<configuration xmlns:xsi="http://www.w3.org/2001/XMLSchema-instance" xsi:noNamespaceSchemaLocation="http://sumo.dlr.de/xsd/sumoConfiguration.xsd">

    <input>
        <net-file value="paradas.net.xml"/>
        <route-files value="paradasbusstops.rou.xml"/>
        <additional-files value="busstops.add.xml"/>
    </input>

</configuration>
