<?xml version="1.0" encoding="UTF-8"?>

<!-- generated on 2023-02-16 13:37:02 by Eclipse SUMO netedit Version 1.15.0
-->

<routes xmlns:xsi="http://www.w3.org/2001/XMLSchema-instance" xsi:noNamespaceSchemaLocation="http://sumo.dlr.de/xsd/routes_file.xsd">
    <!-- VTypes -->
    <vType id="t_0" vClass="bus" personCapacity="100"/>
    <!-- Routes -->
    <route id="r_0" edges="-E3 -E2 -E2.65 -E2.114 -E20 -E20.53 -E20.117 -E21 -E21.88 -E22 -E23 -E1 -E0 -E34 -E340 -E0.265 -E0.239 -E0.193 -E7 -E7.56 -E70 -E00"/>
    <route id="r_bus1" edges="-E3 -E2 -E2.65 E8 E7.49 E31 -E20 -E20.53 -E20.117 -E21 -E21.88 -E36 E34.81 E32 -E23 -E1" color="magenta"/>
    <!-- Vehicles, persons and containers (sorted by depart) -->
    <flow id="f_0" begin="0.00" route="r_0" end="3600.00" vehsPerHour="3600.00"/>
    <flow id="f_2" type="t_0" begin="0.00" line="1b" route="r_bus1" end="3600.00" vehsPerHour="360.00"/>
</routes>
